34
9.45676699 0. 0. 0. 1.155671 0. 0. 0. 2.643601
S 0.8646417 0.0856217 0.4689279
S 0.8663890 0.0857843 0.1351291
Mo 0.8560186 0.4753274 0.2873942
S 0.6873294 0.3936244 0.4596353
S 0.6929804 0.3713468 0.1185692
Mo 0.6862796 0.7633098 0.2825370
S 0.8545980 0.6708292 0.4486168
S 0.8545123 0.6666874 0.1146125
Mo 0.8629403 1.0471007 0.3006803
S 0.6868280 0.9456650 0.4634891
S 0.6998113 0.9568511 0.1205389
Mo 0.3618216 0.1847309 0.2935964
S 0.5260962 0.0863870 0.4600448
S 0.5348379 0.0894875 0.1297123
Mo 0.5265817 0.4772436 0.2784130
S 0.3624753 0.3882513 0.4525556
S 0.3635411 0.3752055 0.1119148
Mo 0.3652268 0.7630864 0.2781795
S 0.5269494 0.6690381 0.1096838
Mo 0.5300192 1.0470394 0.2900995
S 0.3670346 0.9457522 0.4574073
S 0.3604225 0.9585725 0.1159032
Mo 0.0313099 0.1847895 0.3013130
S 0.1956761 0.0838230 0.4650863
S 0.1967693 0.0903508 0.1278874
Mo 0.1967578 0.4753919 0.2813011
S 0.0287851 0.3864324 0.4586755
S 0.0244514 0.3729871 0.1239344
Mo 0.0286728 0.7631204 0.2856894
S 0.2011512 0.6675435 0.4465001
S 0.1969214 0.6672839 0.1104564
Mo 0.1950294 1.0511147 0.2932237
S 0.0312912 0.9612169 0.4667423
S 0.0292670 0.9563028 0.1216485
